Circuit: * C:\Program Files (x86)\LTC\LTspiceIV\Draft3.asc


Date: Wed Apr 13 13:11:56 2016
Total elapsed time: 0.000 seconds.

tnom = 27
temp = 27
method = trap
totiter = 0
traniter = 0
tranpoints = 0
accept = 0
rejected = 0
matrix size = 3
fillins = 0
solver = Normal

